Version 4.1
SHEET 1 1668 680
WIRE 752 -80 704 -80
WIRE 1040 -80 912 -80
WIRE 1472 -80 1392 -80
WIRE 1600 -80 1472 -80
WIRE 912 -48 912 -80
WIRE 1040 -48 1040 -80
WIRE 1472 -48 1472 -80
WIRE 1600 -48 1600 -80
WIRE 912 80 912 16
WIRE 976 80 912 80
WIRE 1040 80 1040 32
WIRE 1040 80 976 80
WIRE 1472 96 1472 16
WIRE 1552 96 1472 96
WIRE 1600 96 1600 32
WIRE 1600 96 1552 96
WIRE 976 112 976 80
WIRE -96 128 -96 32
WIRE 256 128 256 32
WIRE 640 144 640 32
WIRE 1552 144 1552 96
WIRE -96 304 -96 208
WIRE 256 304 256 208
WIRE 640 304 640 224
FLAG -96 304 0
FLAG 256 304 0
FLAG -96 32 low_freq
FLAG 256 32 high_freq
FLAG 640 304 0
FLAG 640 32 mod
FLAG 976 112 0
FLAG 704 -80 mod
FLAG 1328 -80 mod
FLAG 1552 144 0
SYMBOL voltage -96 112 R0
WINDOW 123 0 0 Left 0
WINDOW 39 0 0 Left 0
SYMATTR InstName V1
SYMATTR Value SINE(1 0.3 10k 0 0 90)
SYMBOL voltage 256 112 R0
WINDOW 123 0 0 Left 0
WINDOW 39 0 0 Left 0
SYMATTR InstName V2
SYMATTR Value SINE(0 1 1Meg 0 0 90)
SYMBOL bv 640 128 R0
SYMATTR InstName B1
SYMATTR Value V=V(low_freq)*V(high_freq)
SYMBOL diode 752 -64 R270
WINDOW 0 32 32 VTop 2
WINDOW 3 0 32 VBottom 2
SYMATTR InstName D1
SYMBOL cap 896 -48 R0
SYMATTR InstName C1
SYMATTR Value {Cval}
SYMBOL res 1024 -64 R0
SYMATTR InstName R1
SYMATTR Value 10k
SYMBOL diode 1328 -64 R270
WINDOW 0 32 32 VTop 2
WINDOW 3 0 32 VBottom 2
SYMATTR InstName D2
SYMBOL cap 1456 -48 R0
SYMATTR InstName C2
SYMATTR Value 2.65n
SYMBOL res 1584 -64 R0
SYMATTR InstName R2
SYMATTR Value 10k
TEXT -128 328 Left 2 !.tran 1e-3
TEXT 896 -272 Left 2 !.step param Cval 2.5n 10n 2.5n
