* C:\Users\luigi\OneDrive\KIT_courses\4th Semester\Microwave Engineering Lab\Microwave_Eng_Lab\Lab6_Analog_Digital_Mod\LT Spice\7.1.2.- Demodulator\1.- Sine Wave\Draft1.asc
* Generated by LTspice 24.1.9 for Windows.
A1 N002 N005 0 0 0 0 S_FM 0 MODULATOR space=100k mark=110k
V1 N002 0 SINE(0 1 10e3 0 0 0 0)
R1 0 N007 1e3
X§U1 N003 0 N004 opamp Aol=100K GBW=10Meg
R2 N001 0 2.5µ
R3 N003 N005 1e3
R4 N004 N003 1e3
R6 N006 N004 50
L1 N006 0 2.5µ
C1 N007 0 100n
C2 N006 0 1n
D1 N006 N007 D
C3 N001 0 1n
V2 N001 0 SINE(0 1 10e3 0 0 0 0)
.model D D
.lib C:\Users\luigi\AppData\Local\LTspice\lib\cmp\standard.dio
.ac dec 100 1 5Meg
.lib opamp.sub
.backanno
.end
